@<TRIPOS>MOLECULE
2ITO
56 59 1 0 0
SMALL
AMBER ff14SB


@<TRIPOS>ATOM
      1 CAO       -45.4800   -2.7160  -15.7450 C.3       1 IRE    0.0693
      2 CAL       -44.4060   -3.5920  -15.0750 C.3       1 IRE    0.0984
      3 OAU       -43.4570   -4.0220  -16.1080 O.3       1 IRE   -0.3706
      4 CAM       -44.0750   -4.8660  -17.1340 C.3       1 IRE    0.0984
      5 CAP       -45.2550   -4.1730  -17.8460 C.3       1 IRE    0.0693
      6 NBE       -46.1310   -3.3930  -16.9140 N.4       1 IRE   -0.6824
      7 CAN       -46.7510   -2.3190  -17.7170 C.3       1 IRE    0.1048
      8 CAJ       -48.2760   -2.4690  -17.8210 C.3       1 IRE   -0.1094
      9 CAK       -48.8310   -1.4830  -18.8750 C.3       1 IRE    0.1294
     10 OAV       -49.1940   -0.1540  -18.3610 O.3       1 IRE   -0.3429
     11 CBA       -50.2350    0.4780  -19.0000 C.ar      1 IRE    0.0641
     12 CAZ       -51.1310    1.2010  -18.2160 C.ar      1 IRE    0.1451
     13 CAH       -52.1950    1.8590  -18.8390 C.ar      1 IRE   -0.2423
     14 OAT       -50.9480    1.2280  -16.8510 O.3       1 IRE   -0.3289
     15 CAA       -51.1650    2.4870  -16.1950 C.3       1 IRE    0.1067
     16 CAI       -50.3990    0.4370  -20.3940 C.ar      1 IRE   -0.1150
     17 C5        -51.4580    1.1010  -21.0030 C.ar      1 IRE   -0.2976
     18 C4        -52.3520    1.8070  -20.2220 C.ar      1 IRE    0.4656
     19 N3        -53.3700    2.4460  -20.8190 N.ar      1 IRE   -0.7100
     20 C2        -53.5590    2.4110  -22.1310 C.ar      1 IRE    0.6859
     21 N1        -52.7310    1.7450  -22.9050 N.ar      1 IRE   -0.7490
     22 C6        -51.6810    1.0850  -22.3780 C.ar      1 IRE    0.6932
     23 NAS       -50.8760    0.4060  -23.1830 N.pl3     1 IRE   -0.7163
     24 CAY       -50.9780    0.4720  -24.5090 C.ar      1 IRE    0.1116
     25 CAG       -50.9250    1.7140  -25.1330 C.ar      1 IRE   -0.0820
     26 CAX       -51.0070    1.8060  -26.5120 C.ar      1 IRE   -0.0096
     27 CL        -50.9430    3.3600  -27.2400 Cl        1 IRE   -0.0494
     28 CAW       -51.1410    0.6670  -27.2930 C.ar      1 IRE    0.1339
     29 FAB       -51.2180    0.7930  -28.6340 F         1 IRE   -0.1169
     30 CAD       -51.1890   -0.5850  -26.6740 C.ar      1 IRE   -0.1410
     31 CAE       -51.1030   -0.6820  -25.2800 C.ar      1 IRE   -0.1420
     32 HAO2      -46.2470   -2.4794  -15.0075 H         1 IRE    0.1137
     33 HAO3      -45.0185   -1.7890  -16.0852 H         1 IRE    0.1137
     34 HAL2      -43.8839   -3.0161  -14.3109 H         1 IRE    0.0972
     35 HAL3      -44.8749   -4.4649  -14.6207 H         1 IRE    0.0972
     36 HAM2      -44.4404   -5.7777  -16.6613 H         1 IRE    0.0972
     37 HAM3      -43.3209   -5.1302  -17.8754 H         1 IRE    0.0972
     38 HAP2      -44.8546   -3.4915  -18.5966 H         1 IRE    0.1137
     39 HAP3      -45.8589   -4.9308  -18.3451 H         1 IRE    0.1137
     40 HBE       -46.8601   -4.0016  -16.5703 H         1 IRE    0.4458
     41 HAN2      -46.5251   -1.3597  -17.2515 H         1 IRE    0.1187
     42 HAN3      -46.3243   -2.3353  -18.7199 H         1 IRE    0.1187
     43 HAJ2      -48.7271   -2.2540  -16.8523 H         1 IRE    0.0732
     44 HAJ3      -48.5203   -3.4896  -18.1158 H         1 IRE    0.0732
     45 HAK2      -48.0711   -1.3503  -19.6451 H         1 IRE    0.0632
     46 HAK3      -49.7136   -1.9287  -19.3338 H         1 IRE    0.0632
     47 HAH       -52.9032    2.4139  -18.2416 H         1 IRE    0.1740
     48 HAI       -49.6956   -0.1157  -20.9991 H         1 IRE    0.1390
     49 H2        -54.3983    2.9329  -22.5664 H         1 IRE    0.0691
     50 HAS       -50.1614   -0.1810  -22.7770 H         1 IRE    0.4208
     51 HAG       -50.8195    2.6101  -24.5395 H         1 IRE    0.1690
     52 HAD       -51.2925   -1.4786  -27.2716 H         1 IRE    0.1600
     53 HAE       -51.1335   -1.6503  -24.8026 H         1 IRE    0.1350
     54 HAA1      -50.6808    2.4767  -15.2185 H         1 IRE    0.0554
     55 HAA2      -52.2352    2.6505  -16.0679 H         1 IRE    0.0554
     56 HAA3      -50.7442    3.2896  -16.8007 H         1 IRE    0.0554
@<TRIPOS>BOND
     1    1    2 1
     2    1    6 1
     3    2    3 1
     4    3    4 1
     5    4    5 1
     6    5    6 1
     7    6    7 1
     8    7    8 1
     9    8    9 1
    10    9   10 1
    11   10   11 1
    12   11   12 ar
    13   11   16 ar
    14   12   13 ar
    15   12   14 1
    16   13   18 ar
    17   14   15 1
    18   16   17 ar
    19   17   18 ar
    20   17   22 ar
    21   18   19 ar
    22   19   20 ar
    23   20   21 ar
    24   21   22 ar
    25   22   23 1
    26   23   24 1
    27   24   25 ar
    28   24   31 ar
    29   25   26 ar
    30   26   27 1
    31   26   28 ar
    32   28   29 1
    33   28   30 ar
    34   30   31 ar
    35   32    1 1
    36   33    1 1
    37   34    2 1
    38   35    2 1
    39   36    4 1
    40   37    4 1
    41   38    5 1
    42   39    5 1
    43   40    6 1
    44   41    7 1
    45   42    7 1
    46   43    8 1
    47   44    8 1
    48   45    9 1
    49   46    9 1
    50   47   13 1
    51   48   16 1
    52   49   20 1
    53   50   23 1
    54   51   25 1
    55   52   30 1
    56   53   31 1
    57   54   15 1
    58   55   15 1
    59   56   15 1
@<TRIPOS>SUBSTRUCTURE
     1 IRE     1 RESIDUE           4 A     IRE     0 ROOT
